MODEL 1
REMARK VINA RESULT:    -9.285      0.000      0.000
REMARK INTER + INTRA:          14.892
REMARK INTER:                 -18.513
REMARK INTRA:                  33.405
REMARK UNBOUND:                33.405
REMARK SMILES CC1(C)CCC(c2ccc(Cl)cc2)=C(CN2CCN(c3ccc(C(=O)NS(=O)(=O)c4ccc(N[C@H](CCN5CCOCC5)CSc5ccccc5)c(S(=O)(=O)C(F)(F)F)c4)cc3)CC2)C1
REMARK SMILES IDX 25 1 26 2 24 3 23 5 20 6 21 7 62 8 22 9 61 10 19 11 16 12
REMARK SMILES IDX 17 13 64 14 18 15 63 16 15 17 14 18 6 19 5 20 65 21 4 22
REMARK SMILES IDX 2 23 1 24 3 25 7 26 10 27 9 28 12 29 8 30 13 31 11 32 27 33
REMARK SMILES IDX 28 34 29 35 30 36 60 37 31 38 52 39 32 40 33 41 53 42 54 43
REMARK SMILES IDX 55 44 56 45 57 46 58 47 59 48 34 49 35 51 36 52 37 53 38 54
REMARK SMILES IDX 39 55 43 56 40 57 42 58 41 59 44 60 45 61 46 62 47 63 51 64
REMARK SMILES IDX 48 65 50 66 49 67
REMARK H PARENT 26 4 34 50
ROOT
ATOM      1  O   UNL     1      -6.777  -4.568 -14.789  1.00  0.00    -0.268 OA
ATOM      2  N   UNL     1      -5.208  -4.743 -15.504  1.00  0.00    -0.245 N 
ATOM      3  C   UNL     1      -6.180  -4.525 -15.591  1.00  0.00     0.264 C 
ATOM      4  H   UNL     1      -4.839  -4.716 -16.001  1.00  0.00     0.183 HD
ENDROOT
BRANCH   3   5
ATOM      5  C   UNL     1      -6.556  -4.262 -16.480  1.00  0.00     0.040 A 
ATOM      6  C   UNL     1      -7.308  -3.738 -18.258  1.00  0.00     0.037 A 
ATOM      7  C   UNL     1      -6.317  -3.774 -18.124  1.00  0.00     0.027 A 
ATOM      8  C   UNL     1      -7.923  -3.965 -17.502  1.00  0.00     0.027 A 
ATOM      9  C   UNL     1      -5.942  -4.036 -17.236  1.00  0.00     0.016 A 
ATOM     10  C   UNL     1      -7.547  -4.227 -16.613  1.00  0.00     0.016 A 
BRANCH   6  11
ATOM     11  N   UNL     1      -7.684  -3.476 -19.146  1.00  0.00    -0.369 N 
ATOM     12  N   UNL     1      -8.435  -2.952 -20.924  1.00  0.00    -0.296 NA
ATOM     13  C   UNL     1      -8.370  -3.918 -20.674  1.00  0.00     0.106 C 
ATOM     14  C   UNL     1      -8.124  -2.248 -20.285  1.00  0.00     0.106 C 
ATOM     15  C   UNL     1      -7.995  -4.180 -19.785  1.00  0.00     0.132 C 
ATOM     16  C   UNL     1      -7.749  -2.510 -19.397  1.00  0.00     0.132 C 
BRANCH  12  17
ATOM     17  C   UNL     1      -8.811  -2.690 -21.813  1.00  0.00     0.116 C 
BRANCH  17  18
ATOM     18  C   UNL     1      -8.200  -2.386 -22.544  1.00  0.00    -0.052 C 
ATOM     19  C   UNL     1      -8.504  -1.687 -23.192  1.00  0.00    -0.040 C 
ATOM     20  C   UNL     1      -7.893  -1.384 -23.923  1.00  0.00     0.037 C 
ATOM     21  C   UNL     1      -7.286  -2.782 -22.628  1.00  0.00     0.039 C 
ATOM     22  C   UNL     1      -6.979  -1.780 -24.007  1.00  0.00     0.011 C 
ATOM     23  C   UNL     1      -6.675  -2.479 -23.360  1.00  0.00    -0.031 C 
ATOM     24  C   UNL     1      -5.795  -2.533 -23.831  1.00  0.00     0.011 C 
ATOM     25  C   UNL     1      -5.972  -3.112 -23.035  1.00  0.00     0.011 C 
BRANCH  19  26
ATOM     26  C   UNL     1      -9.418  -1.291 -23.107  1.00  0.00    -0.022 A 
ATOM     27  C   UNL     1     -11.248  -0.499 -22.939  1.00  0.00     0.041 A 
ATOM     28  C   UNL     1     -10.448   0.018 -22.632  1.00  0.00     0.021 A 
ATOM     29  C   UNL     1     -11.132  -1.412 -23.330  1.00  0.00     0.021 A 
ATOM     30  C   UNL     1      -9.533  -0.378 -22.717  1.00  0.00     0.010 A 
ATOM     31  C   UNL     1     -10.217  -1.808 -23.414  1.00  0.00     0.010 A 
ATOM     32  Cl  UNL     1     -12.162  -0.103 -22.855  1.00  0.00    -0.084 Cl
ENDBRANCH  19  26
ENDBRANCH  17  18
ENDBRANCH  12  17
ENDBRANCH   6  11
ENDBRANCH   3   5
BRANCH   2  33
ATOM     33  S   UNL     1      -4.833  -5.005 -14.615  1.00  0.00     0.264 S 
ATOM     34  O   UNL     1      -5.212  -5.924 -14.726  1.00  0.00    -0.201 OA
ATOM     35  O   UNL     1      -4.454  -4.087 -14.505  1.00  0.00    -0.201 OA
BRANCH  33  36
ATOM     36  C   UNL     1      -4.457  -5.267 -13.726  1.00  0.00     0.089 A 
ATOM     37  C   UNL     1      -4.406  -4.596 -12.987  1.00  0.00     0.045 A 
ATOM     38  C   UNL     1      -4.131  -6.201 -13.577  1.00  0.00     0.024 A 
ATOM     39  C   UNL     1      -4.031  -4.858 -12.098  1.00  0.00     0.101 A 
ATOM     40  C   UNL     1      -3.756  -6.463 -12.688  1.00  0.00     0.028 A 
ATOM     41  C   UNL     1      -3.705  -5.792 -11.949  1.00  0.00     0.054 A 
BRANCH  39  42
ATOM     42  S   UNL     1      -3.980  -4.187 -11.359  1.00  0.00     0.278 S 
ATOM     43  O   UNL     1      -4.875  -4.485 -11.027  1.00  0.00    -0.214 OA
ATOM     44  O   UNL     1      -3.086  -3.888 -11.691  1.00  0.00    -0.214 OA
BRANCH  42  45
ATOM     45  C   UNL     1      -3.930  -3.515 -10.620  1.00  0.00     0.501 C 
ATOM     46  F   UNL     1      -3.880  -2.844  -9.880  1.00  0.00    -0.156 F 
ATOM     47  F   UNL     1      -3.007  -3.264 -10.910  1.00  0.00    -0.156 F 
ATOM     48  F   UNL     1      -4.853  -3.766 -10.329  1.00  0.00    -0.156 F 
ENDBRANCH  42  45
ENDBRANCH  39  42
BRANCH  41  49
ATOM     49  N   UNL     1      -3.329  -6.054 -11.060  1.00  0.00    -0.380 N 
ATOM     50  H   UNL     1      -3.376  -5.667 -10.578  1.00  0.00     0.160 HD
BRANCH  49  51
ATOM     51  C   UNL     1      -2.879  -6.940 -10.949  1.00  0.00     0.090 C 
BRANCH  51  52
ATOM     52  C   UNL     1      -1.911  -7.040 -11.178  1.00  0.00     0.041 C 
BRANCH  52  53
ATOM     53  C   UNL     1      -1.219  -6.548 -10.649  1.00  0.00     0.087 C 
BRANCH  53  54
ATOM     54  N   UNL     1      -0.278  -6.494 -10.986  1.00  0.00    -0.299 NA
ATOM     55  C   UNL     1       0.016  -5.702 -11.521  1.00  0.00     0.113 C 
ATOM     56  C   UNL     1       0.368  -7.230 -10.786  1.00  0.00     0.113 C 
ATOM     57  C   UNL     1       0.956  -5.647 -11.858  1.00  0.00     0.175 C 
ATOM     58  C   UNL     1       1.308  -7.175 -11.122  1.00  0.00     0.175 C 
ATOM     59  O   UNL     1       1.602  -6.384 -11.658  1.00  0.00    -0.379 OA
ENDBRANCH  53  54
ENDBRANCH  52  53
ENDBRANCH  51  52
BRANCH  51  60
ATOM     60  C   UNL     1      -3.397  -7.725 -10.610  1.00  0.00     0.099 C 
BRANCH  60  61
ATOM     61  S   UNL     1      -3.528  -7.851  -9.627  1.00  0.00    -0.124 SA
BRANCH  61  62
ATOM     62  C   UNL     1      -3.885  -8.717  -9.276  1.00  0.00     0.007 A 
ATOM     63  C   UNL     1      -3.321  -9.283  -8.676  1.00  0.00     0.015 A 
ATOM     64  C   UNL     1      -4.805  -9.016  -9.527  1.00  0.00     0.015 A 
ATOM     65  C   UNL     1      -3.678 -10.149  -8.325  1.00  0.00     0.001 A 
ATOM     66  C   UNL     1      -5.162  -9.882  -9.176  1.00  0.00     0.001 A 
ATOM     67  C   UNL     1      -4.598 -10.449  -8.576  1.00  0.00     0.000 A 
ENDBRANCH  61  62
ENDBRANCH  60  61
ENDBRANCH  51  60
ENDBRANCH  49  51
ENDBRANCH  41  49
ENDBRANCH  33  36
ENDBRANCH   2  33
TORSDOF 17
ENDMDL
MODEL 2
REMARK VINA RESULT:    -9.222      5.349      7.752
REMARK INTER + INTRA:          15.018
REMARK INTER:                 -17.977
REMARK INTRA:                  32.995
REMARK UNBOUND:                33.405
REMARK SMILES CC1(C)CCC(c2ccc(Cl)cc2)=C(CN2CCN(c3ccc(C(=O)NS(=O)(=O)c4ccc(N[C@H](CCN5CCOCC5)CSc5ccccc5)c(S(=O)(=O)C(F)(F)F)c4)cc3)CC2)C1
REMARK SMILES IDX 25 1 26 2 24 3 23 5 20 6 21 7 62 8 22 9 61 10 19 11 16 12
REMARK SMILES IDX 17 13 64 14 18 15 63 16 15 17 14 18 6 19 5 20 65 21 4 22
REMARK SMILES IDX 2 23 1 24 3 25 7 26 10 27 9 28 12 29 8 30 13 31 11 32 27 33
REMARK SMILES IDX 28 34 29 35 30 36 60 37 31 38 52 39 32 40 33 41 53 42 54 43
REMARK SMILES IDX 55 44 56 45 57 46 58 47 59 48 34 49 35 51 36 52 37 53 38 54
REMARK SMILES IDX 39 55 43 56 40 57 42 58 41 59 44 60 45 61 46 62 47 63 51 64
REMARK SMILES IDX 48 65 50 66 49 67
REMARK H PARENT 26 4 34 50
ROOT
ATOM      1  O   UNL     1      -5.751  -2.831 -19.394  1.00  0.00    -0.268 OA
ATOM      2  N   UNL     1      -5.091  -2.788 -20.994  1.00  0.00    -0.245 N 
ATOM      3  C   UNL     1      -5.853  -2.625 -20.367  1.00  0.00     0.264 C 
ATOM      4  H   UNL     1      -5.154  -2.660 -21.598  1.00  0.00     0.183 HD
ENDROOT
BRANCH   3   5
ATOM      5  C   UNL     1      -6.716  -2.256 -20.713  1.00  0.00     0.040 A 
ATOM      6  C   UNL     1      -8.441  -1.519 -21.404  1.00  0.00     0.037 A 
ATOM      7  C   UNL     1      -7.578  -1.066 -21.628  1.00  0.00     0.027 A 
ATOM      8  C   UNL     1      -8.441  -2.340 -20.834  1.00  0.00     0.027 A 
ATOM      9  C   UNL     1      -6.715  -1.435 -21.283  1.00  0.00     0.016 A 
ATOM     10  C   UNL     1      -7.579  -2.709 -20.488  1.00  0.00     0.016 A 
BRANCH   6  11
ATOM     11  N   UNL     1      -9.304  -1.150 -21.750  1.00  0.00    -0.369 N 
ATOM     12  N   UNL     1     -11.029  -0.412 -22.441  1.00  0.00    -0.296 NA
ATOM     13  C   UNL     1     -10.717  -0.175 -21.521  1.00  0.00     0.106 C 
ATOM     14  C   UNL     1     -10.478  -1.017 -23.015  1.00  0.00     0.106 C 
ATOM     15  C   UNL     1      -9.855  -0.544 -21.175  1.00  0.00     0.132 C 
ATOM     16  C   UNL     1      -9.616  -1.386 -22.670  1.00  0.00     0.132 C 
BRANCH  12  17
ATOM     17  C   UNL     1     -11.892  -0.043 -22.787  1.00  0.00     0.116 C 
BRANCH  17  18
ATOM     18  C   UNL     1     -11.966   0.929 -23.012  1.00  0.00    -0.052 C 
ATOM     19  C   UNL     1     -12.838   1.404 -22.895  1.00  0.00    -0.040 C 
ATOM     20  C   UNL     1     -12.911   2.376 -23.121  1.00  0.00     0.037 C 
ATOM     21  C   UNL     1     -11.168   1.424 -23.355  1.00  0.00     0.039 C 
ATOM     22  C   UNL     1     -12.113   2.871 -23.464  1.00  0.00     0.011 C 
ATOM     23  C   UNL     1     -11.242   2.396 -23.581  1.00  0.00    -0.031 C 
ATOM     24  C   UNL     1     -10.823   3.243 -23.909  1.00  0.00     0.011 C 
ATOM     25  C   UNL     1     -10.278   2.407 -23.846  1.00  0.00     0.011 C 
BRANCH  19  26
ATOM     26  C   UNL     1     -13.636   0.909 -22.552  1.00  0.00    -0.022 A 
ATOM     27  C   UNL     1     -15.232  -0.083 -21.866  1.00  0.00     0.041 A 
ATOM     28  C   UNL     1     -14.962  -0.171 -22.826  1.00  0.00     0.021 A 
ATOM     29  C   UNL     1     -14.703   0.500 -21.250  1.00  0.00     0.021 A 
ATOM     30  C   UNL     1     -14.164   0.325 -23.169  1.00  0.00     0.010 A 
ATOM     31  C   UNL     1     -13.905   0.996 -21.593  1.00  0.00     0.010 A 
ATOM     32  Cl  UNL     1     -16.030  -0.579 -21.524  1.00  0.00    -0.084 Cl
ENDBRANCH  19  26
ENDBRANCH  17  18
ENDBRANCH  12  17
ENDBRANCH   6  11
ENDBRANCH   3   5
BRANCH   2  33
ATOM     33  S   UNL     1      -4.229  -3.157 -20.649  1.00  0.00     0.264 S 
ATOM     34  O   UNL     1      -3.888  -2.228 -20.506  1.00  0.00    -0.201 OA
ATOM     35  O   UNL     1      -4.569  -4.087 -20.791  1.00  0.00    -0.201 OA
BRANCH  33  36
ATOM     36  C   UNL     1      -3.366  -3.526 -20.303  1.00  0.00     0.089 A 
ATOM     37  C   UNL     1      -2.773  -4.061 -20.906  1.00  0.00     0.045 A 
ATOM     38  C   UNL     1      -3.096  -3.361 -19.355  1.00  0.00     0.024 A 
ATOM     39  C   UNL     1      -1.911  -4.429 -20.560  1.00  0.00     0.101 A 
ATOM     40  C   UNL     1      -2.233  -3.729 -19.009  1.00  0.00     0.028 A 
ATOM     41  C   UNL     1      -1.640  -4.264 -19.612  1.00  0.00     0.054 A 
BRANCH  39  42
ATOM     42  S   UNL     1      -1.318  -4.964 -21.163  1.00  0.00     0.278 S 
ATOM     43  O   UNL     1      -0.895  -4.121 -21.495  1.00  0.00    -0.214 OA
ATOM     44  O   UNL     1      -1.741  -5.807 -20.831  1.00  0.00    -0.214 OA
BRANCH  42  45
ATOM     45  C   UNL     1      -0.726  -5.498 -21.766  1.00  0.00     0.501 C 
ATOM     46  F   UNL     1      -0.133  -6.033 -22.369  1.00  0.00    -0.156 F 
ATOM     47  F   UNL     1      -0.220  -4.669 -22.004  1.00  0.00    -0.156 F 
ATOM     48  F   UNL     1      -1.232  -6.328 -21.528  1.00  0.00    -0.156 F 
ENDBRANCH  42  45
ENDBRANCH  39  42
BRANCH  41  49
ATOM     49  N   UNL     1      -0.778  -4.633 -19.266  1.00  0.00    -0.380 N 
ATOM     50  H   UNL     1      -0.440  -5.014 -19.620  1.00  0.00     0.160 HD
BRANCH  49  51
ATOM     51  C   UNL     1      -0.460  -4.387 -18.351  1.00  0.00     0.090 C 
BRANCH  51  52
ATOM     52  C   UNL     1      -0.620  -5.007 -17.582  1.00  0.00     0.041 C 
BRANCH  52  53
ATOM     53  C   UNL     1      -0.211  -5.919 -17.582  1.00  0.00     0.087 C 
BRANCH  53  54
ATOM     54  N   UNL     1      -0.510  -6.601 -16.915  1.00  0.00    -0.299 NA
ATOM     55  C   UNL     1      -1.216  -7.266 -17.162  1.00  0.00     0.113 C 
ATOM     56  C   UNL     1      -0.104  -6.619 -16.002  1.00  0.00     0.113 C 
ATOM     57  C   UNL     1      -1.515  -7.948 -16.494  1.00  0.00     0.175 C 
ATOM     58  C   UNL     1      -0.404  -7.301 -15.334  1.00  0.00     0.175 C 
ATOM     59  O   UNL     1      -1.109  -7.965 -15.581  1.00  0.00    -0.379 OA
ENDBRANCH  53  54
ENDBRANCH  52  53
ENDBRANCH  51  52
BRANCH  51  60
ATOM     60  C   UNL     1       0.018  -3.521 -18.203  1.00  0.00     0.099 C 
BRANCH  60  61
ATOM     61  S   UNL     1       1.016  -3.484 -18.264  1.00  0.00    -0.124 SA
BRANCH  61  62
ATOM     62  C   UNL     1       1.493  -2.615 -18.131  1.00  0.00     0.007 A 
ATOM     63  C   UNL     1       1.929  -2.413 -17.254  1.00  0.00     0.015 A 
ATOM     64  C   UNL     1       1.534  -1.949 -18.875  1.00  0.00     0.015 A 
ATOM     65  C   UNL     1       2.406  -1.545 -17.121  1.00  0.00     0.001 A 
ATOM     66  C   UNL     1       2.011  -1.080 -18.742  1.00  0.00     0.001 A 
ATOM     67  C   UNL     1       2.447  -0.878 -17.865  1.00  0.00     0.000 A 
ENDBRANCH  61  62
ENDBRANCH  60  61
ENDBRANCH  51  60
ENDBRANCH  49  51
ENDBRANCH  41  49
ENDBRANCH  33  36
ENDBRANCH   2  33
TORSDOF 17
ENDMDL
MODEL 3
REMARK VINA RESULT:    -9.217      5.719      7.914
REMARK INTER + INTRA:          15.028
REMARK INTER:                 -18.067
REMARK INTRA:                  33.095
REMARK UNBOUND:                33.405
REMARK SMILES CC1(C)CCC(c2ccc(Cl)cc2)=C(CN2CCN(c3ccc(C(=O)NS(=O)(=O)c4ccc(N[C@H](CCN5CCOCC5)CSc5ccccc5)c(S(=O)(=O)C(F)(F)F)c4)cc3)CC2)C1
REMARK SMILES IDX 25 1 26 2 24 3 23 5 20 6 21 7 62 8 22 9 61 10 19 11 16 12
REMARK SMILES IDX 17 13 64 14 18 15 63 16 15 17 14 18 6 19 5 20 65 21 4 22
REMARK SMILES IDX 2 23 1 24 3 25 7 26 10 27 9 28 12 29 8 30 13 31 11 32 27 33
REMARK SMILES IDX 28 34 29 35 30 36 60 37 31 38 52 39 32 40 33 41 53 42 54 43
REMARK SMILES IDX 55 44 56 45 57 46 58 47 59 48 34 49 35 51 36 52 37 53 38 54
REMARK SMILES IDX 39 55 43 56 40 57 42 58 41 59 44 60 45 61 46 62 47 63 51 64
REMARK SMILES IDX 48 65 50 66 49 67
REMARK H PARENT 26 4 34 50
ROOT
ATOM      1  O   UNL     1      -5.806  -2.862 -19.467  1.00  0.00    -0.268 OA
ATOM      2  N   UNL     1      -5.111  -2.670 -21.042  1.00  0.00    -0.245 N 
ATOM      3  C   UNL     1      -5.891  -2.580 -20.422  1.00  0.00     0.264 C 
ATOM      4  H   UNL     1      -5.164  -2.495 -21.634  1.00  0.00     0.183 HD
ENDROOT
BRANCH   3   5
ATOM      5  C   UNL     1      -6.756  -2.207 -20.758  1.00  0.00     0.040 A 
ATOM      6  C   UNL     1      -8.485  -1.461 -21.430  1.00  0.00     0.037 A 
ATOM      7  C   UNL     1      -8.487  -2.236 -20.799  1.00  0.00     0.027 A 
ATOM      8  C   UNL     1      -7.619  -1.058 -21.726  1.00  0.00     0.027 A 
ATOM      9  C   UNL     1      -7.622  -2.609 -20.463  1.00  0.00     0.016 A 
ATOM     10  C   UNL     1      -6.754  -1.431 -21.390  1.00  0.00     0.016 A 
BRANCH   6  11
ATOM     11  N   UNL     1      -9.350  -1.088 -21.766  1.00  0.00    -0.369 N 
ATOM     12  N   UNL     1     -11.080  -0.341 -22.438  1.00  0.00    -0.296 NA
ATOM     13  C   UNL     1     -10.773  -0.134 -21.509  1.00  0.00     0.106 C 
ATOM     14  C   UNL     1     -10.522  -0.922 -23.031  1.00  0.00     0.106 C 
ATOM     15  C   UNL     1      -9.908  -0.507 -21.173  1.00  0.00     0.132 C 
ATOM     16  C   UNL     1      -9.657  -1.295 -22.695  1.00  0.00     0.132 C 
BRANCH  12  17
ATOM     17  C   UNL     1     -11.945   0.032 -22.774  1.00  0.00     0.116 C 
BRANCH  17  18
ATOM     18  C   UNL     1     -12.021   1.006 -22.984  1.00  0.00    -0.052 C 
ATOM     19  C   UNL     1     -12.892   1.480 -22.851  1.00  0.00    -0.040 C 
ATOM     20  C   UNL     1     -12.968   2.454 -23.061  1.00  0.00     0.037 C 
ATOM     21  C   UNL     1     -11.226   1.508 -23.326  1.00  0.00     0.039 C 
ATOM     22  C   UNL     1     -12.173   2.956 -23.403  1.00  0.00     0.011 C 
ATOM     23  C   UNL     1     -11.302   2.483 -23.535  1.00  0.00    -0.031 C 
ATOM     24  C   UNL     1     -10.888   3.335 -23.853  1.00  0.00     0.011 C 
ATOM     25  C   UNL     1     -10.341   2.499 -23.809  1.00  0.00     0.011 C 
BRANCH  19  26
ATOM     26  C   UNL     1     -13.686   0.978 -22.510  1.00  0.00    -0.022 A 
ATOM     27  C   UNL     1     -15.277  -0.026 -21.826  1.00  0.00     0.041 A 
ATOM     28  C   UNL     1     -14.731   0.534 -21.201  1.00  0.00     0.021 A 
ATOM     29  C   UNL     1     -15.026  -0.084 -22.793  1.00  0.00     0.021 A 
ATOM     30  C   UNL     1     -13.937   1.036 -21.543  1.00  0.00     0.010 A 
ATOM     31  C   UNL     1     -14.231   0.418 -23.134  1.00  0.00     0.010 A 
ATOM     32  Cl  UNL     1     -16.071  -0.528 -21.484  1.00  0.00    -0.084 Cl
ENDBRANCH  19  26
ENDBRANCH  17  18
ENDBRANCH  12  17
ENDBRANCH   6  11
ENDBRANCH   3   5
BRANCH   2  33
ATOM     33  S   UNL     1      -4.246  -3.043 -20.706  1.00  0.00     0.264 S 
ATOM     34  O   UNL     1      -4.071  -2.192 -20.212  1.00  0.00    -0.201 OA
ATOM     35  O   UNL     1      -4.422  -3.895 -21.200  1.00  0.00    -0.201 OA
BRANCH  33  36
ATOM     36  C   UNL     1      -3.381  -3.416 -20.370  1.00  0.00     0.089 A 
ATOM     37  C   UNL     1      -3.381  -4.092 -19.632  1.00  0.00     0.045 A 
ATOM     38  C   UNL     1      -2.517  -3.114 -20.771  1.00  0.00     0.024 A 
ATOM     39  C   UNL     1      -2.516  -4.465 -19.296  1.00  0.00     0.101 A 
ATOM     40  C   UNL     1      -1.652  -3.487 -20.435  1.00  0.00     0.028 A 
ATOM     41  C   UNL     1      -1.652  -4.162 -19.698  1.00  0.00     0.054 A 
BRANCH  39  42
ATOM     42  S   UNL     1      -2.516  -5.140 -18.559  1.00  0.00     0.278 S 
ATOM     43  O   UNL     1      -2.462  -4.404 -17.885  1.00  0.00    -0.214 OA
ATOM     44  O   UNL     1      -2.570  -5.876 -19.233  1.00  0.00    -0.214 OA
BRANCH  42  45
ATOM     45  C   UNL     1      -2.516  -5.815 -17.822  1.00  0.00     0.501 C 
ATOM     46  F   UNL     1      -2.515  -6.491 -17.084  1.00  0.00    -0.156 F 
ATOM     47  F   UNL     1      -2.523  -6.553 -18.497  1.00  0.00    -0.156 F 
ATOM     48  F   UNL     1      -2.508  -5.078 -17.146  1.00  0.00    -0.156 F 
ENDBRANCH  42  45
ENDBRANCH  39  42
BRANCH  41  49
ATOM     49  N   UNL     1      -0.787  -4.535 -19.362  1.00  0.00    -0.380 N 
ATOM     50  H   UNL     1      -0.787  -4.963 -18.913  1.00  0.00     0.160 HD
BRANCH  49  51
ATOM     51  C   UNL     1       0.078  -4.219 -19.750  1.00  0.00     0.090 C 
BRANCH  51  52
ATOM     52  C   UNL     1       0.457  -4.667 -20.560  1.00  0.00     0.041 C 
BRANCH  52  53
ATOM     53  C   UNL     1       0.746  -5.623 -20.513  1.00  0.00     0.087 C 
BRANCH  53  54
ATOM     54  N   UNL     1       1.190  -6.051 -21.300  1.00  0.00    -0.299 NA
ATOM     55  C   UNL     1       0.711  -6.105 -22.176  1.00  0.00     0.113 C 
ATOM     56  C   UNL     1       2.114  -6.424 -21.211  1.00  0.00     0.113 C 
ATOM     57  C   UNL     1       1.156  -6.533 -22.963  1.00  0.00     0.175 C 
ATOM     58  C   UNL     1       2.559  -6.851 -21.998  1.00  0.00     0.175 C 
ATOM     59  O   UNL     1       2.080  -6.905 -22.874  1.00  0.00    -0.379 OA
ENDBRANCH  53  54
ENDBRANCH  52  53
ENDBRANCH  51  52
BRANCH  51  60
ATOM     60  C   UNL     1       0.565  -3.454 -19.328  1.00  0.00     0.099 C 
BRANCH  60  61
ATOM     61  S   UNL     1       1.069  -3.591 -18.476  1.00  0.00    -0.124 SA
BRANCH  61  62
ATOM     62  C   UNL     1       1.584  -2.834 -18.072  1.00  0.00     0.007 A 
ATOM     63  C   UNL     1       2.583  -2.836 -18.105  1.00  0.00     0.015 A 
ATOM     64  C   UNL     1       1.099  -2.076 -17.636  1.00  0.00     0.015 A 
ATOM     65  C   UNL     1       3.098  -2.080 -17.701  1.00  0.00     0.001 A 
ATOM     66  C   UNL     1       1.614  -1.320 -17.233  1.00  0.00     0.001 A 
ATOM     67  C   UNL     1       2.614  -1.322 -17.265  1.00  0.00     0.000 A 
ENDBRANCH  61  62
ENDBRANCH  60  61
ENDBRANCH  51  60
ENDBRANCH  49  51
ENDBRANCH  41  49
ENDBRANCH  33  36
ENDBRANCH   2  33
TORSDOF 17
ENDMDL
MODEL 4
REMARK VINA RESULT:    -9.148      5.560      7.701
REMARK INTER + INTRA:          15.166
REMARK INTER:                 -17.986
REMARK INTRA:                  33.151
REMARK UNBOUND:                33.405
REMARK SMILES CC1(C)CCC(c2ccc(Cl)cc2)=C(CN2CCN(c3ccc(C(=O)NS(=O)(=O)c4ccc(N[C@H](CCN5CCOCC5)CSc5ccccc5)c(S(=O)(=O)C(F)(F)F)c4)cc3)CC2)C1
REMARK SMILES IDX 25 1 26 2 24 3 23 5 20 6 21 7 62 8 22 9 61 10 19 11 16 12
REMARK SMILES IDX 17 13 64 14 18 15 63 16 15 17 14 18 6 19 5 20 65 21 4 22
REMARK SMILES IDX 2 23 1 24 3 25 7 26 10 27 9 28 12 29 8 30 13 31 11 32 27 33
REMARK SMILES IDX 28 34 29 35 30 36 60 37 31 38 52 39 32 40 33 41 53 42 54 43
REMARK SMILES IDX 55 44 56 45 57 46 58 47 59 48 34 49 35 51 36 52 37 53 38 54
REMARK SMILES IDX 39 55 43 56 40 57 42 58 41 59 44 60 45 61 46 62 47 63 51 64
REMARK SMILES IDX 48 65 50 66 49 67
REMARK H PARENT 26 4 34 50
ROOT
ATOM      1  O   UNL     1      -5.868  -2.820 -19.306  1.00  0.00    -0.268 OA
ATOM      2  N   UNL     1      -5.168  -2.710 -20.887  1.00  0.00    -0.245 N 
ATOM      3  C   UNL     1      -5.947  -2.579 -20.273  1.00  0.00     0.264 C 
ATOM      4  H   UNL     1      -5.217  -2.561 -21.487  1.00  0.00     0.183 HD
ENDROOT
BRANCH   3   5
ATOM      5  C   UNL     1      -6.805  -2.208 -20.628  1.00  0.00     0.040 A 
ATOM      6  C   UNL     1      -8.522  -1.465 -21.336  1.00  0.00     0.037 A 
ATOM      7  C   UNL     1      -7.650  -1.056 -21.607  1.00  0.00     0.027 A 
ATOM      8  C   UNL     1      -8.535  -2.245 -20.711  1.00  0.00     0.027 A 
ATOM      9  C   UNL     1      -6.792  -1.427 -21.253  1.00  0.00     0.016 A 
ATOM     10  C   UNL     1      -7.677  -2.617 -20.357  1.00  0.00     0.016 A 
BRANCH   6  11
ATOM     11  N   UNL     1      -9.380  -1.093 -21.690  1.00  0.00    -0.369 N 
ATOM     12  N   UNL     1     -11.096  -0.350 -22.398  1.00  0.00    -0.296 NA
ATOM     13  C   UNL     1     -10.799  -0.125 -21.470  1.00  0.00     0.106 C 
ATOM     14  C   UNL     1     -10.535  -0.947 -22.972  1.00  0.00     0.106 C 
ATOM     15  C   UNL     1      -9.941  -0.496 -21.116  1.00  0.00     0.132 C 
ATOM     16  C   UNL     1      -9.677  -1.318 -22.617  1.00  0.00     0.132 C 
BRANCH  12  17
ATOM     17  C   UNL     1     -11.954   0.022 -22.752  1.00  0.00     0.116 C 
BRANCH  17  18
ATOM     18  C   UNL     1     -12.025   0.995 -22.971  1.00  0.00    -0.052 C 
ATOM     19  C   UNL     1     -12.895   1.473 -22.849  1.00  0.00    -0.040 C 
ATOM     20  C   UNL     1     -12.966   2.446 -23.068  1.00  0.00     0.037 C 
ATOM     21  C   UNL     1     -11.226   1.490 -23.313  1.00  0.00     0.039 C 
ATOM     22  C   UNL     1     -12.167   2.941 -23.410  1.00  0.00     0.011 C 
ATOM     23  C   UNL     1     -11.297   2.463 -23.532  1.00  0.00    -0.031 C 
ATOM     24  C   UNL     1     -10.877   3.310 -23.856  1.00  0.00     0.011 C 
ATOM     25  C   UNL     1     -10.334   2.472 -23.800  1.00  0.00     0.011 C 
BRANCH  19  26
ATOM     26  C   UNL     1     -13.694   0.978 -22.507  1.00  0.00    -0.022 A 
ATOM     27  C   UNL     1     -15.292  -0.012 -21.822  1.00  0.00     0.041 A 
ATOM     28  C   UNL     1     -15.027  -0.092 -22.784  1.00  0.00     0.021 A 
ATOM     29  C   UNL     1     -14.757   0.563 -21.203  1.00  0.00     0.021 A 
ATOM     30  C   UNL     1     -14.228   0.403 -23.126  1.00  0.00     0.010 A 
ATOM     31  C   UNL     1     -13.958   1.058 -21.546  1.00  0.00     0.010 A 
ATOM     32  Cl  UNL     1     -16.091  -0.507 -21.481  1.00  0.00    -0.084 Cl
ENDBRANCH  19  26
ENDBRANCH  17  18
ENDBRANCH  12  17
ENDBRANCH   6  11
ENDBRANCH   3   5
BRANCH   2  33
ATOM     33  S   UNL     1      -4.310  -3.082 -20.533  1.00  0.00     0.264 S 
ATOM     34  O   UNL     1      -4.523  -3.967 -20.946  1.00  0.00    -0.201 OA
ATOM     35  O   UNL     1      -4.097  -2.196 -20.120  1.00  0.00    -0.201 OA
BRANCH  33  36
ATOM     36  C   UNL     1      -3.451  -3.453 -20.179  1.00  0.00     0.089 A 
ATOM     37  C   UNL     1      -3.467  -4.160 -19.471  1.00  0.00     0.045 A 
ATOM     38  C   UNL     1      -2.578  -3.118 -20.532  1.00  0.00     0.024 A 
ATOM     39  C   UNL     1      -2.608  -4.531 -19.117  1.00  0.00     0.101 A 
ATOM     40  C   UNL     1      -1.720  -3.490 -20.178  1.00  0.00     0.028 A 
ATOM     41  C   UNL     1      -1.735  -4.197 -19.471  1.00  0.00     0.054 A 
BRANCH  39  42
ATOM     42  S   UNL     1      -2.624  -5.238 -18.410  1.00  0.00     0.278 S 
ATOM     43  O   UNL     1      -2.641  -5.945 -19.116  1.00  0.00    -0.214 OA
ATOM     44  O   UNL     1      -2.606  -4.531 -17.703  1.00  0.00    -0.214 OA
BRANCH  42  45
ATOM     45  C   UNL     1      -2.639  -5.944 -17.702  1.00  0.00     0.501 C 
ATOM     46  F   UNL     1      -2.654  -6.651 -16.995  1.00  0.00    -0.156 F 
ATOM     47  F   UNL     1      -2.601  -6.652 -18.408  1.00  0.00    -0.156 F 
ATOM     48  F   UNL     1      -2.677  -5.237 -16.996  1.00  0.00    -0.156 F 
ENDBRANCH  42  45
ENDBRANCH  39  42
BRANCH  41  49
ATOM     49  N   UNL     1      -0.877  -4.568 -19.117  1.00  0.00    -0.380 N 
ATOM     50  H   UNL     1      -0.885  -4.987 -18.660  1.00  0.00     0.160 HD
BRANCH  49  51
ATOM     51  C   UNL     1      -0.005  -4.264 -19.499  1.00  0.00     0.090 C 
BRANCH  51  52
ATOM     52  C   UNL     1       0.516  -3.541 -19.044  1.00  0.00     0.041 C 
BRANCH  52  53
ATOM     53  C   UNL     1       0.816  -3.660 -18.098  1.00  0.00     0.087 C 
BRANCH  53  54
ATOM     54  N   UNL     1       1.402  -2.973 -17.669  1.00  0.00    -0.299 NA
ATOM     55  C   UNL     1       2.272  -3.246 -17.257  1.00  0.00     0.113 C 
ATOM     56  C   UNL     1       1.120  -2.014 -17.652  1.00  0.00     0.113 C 
ATOM     57  C   UNL     1       2.859  -2.559 -16.828  1.00  0.00     0.175 C 
ATOM     58  C   UNL     1       1.707  -1.328 -17.223  1.00  0.00     0.175 C 
ATOM     59  O   UNL     1       2.576  -1.600 -16.811  1.00  0.00    -0.379 OA
ENDBRANCH  53  54
ENDBRANCH  52  53
ENDBRANCH  51  52
BRANCH  51  60
ATOM     60  C   UNL     1       0.347  -4.682 -20.337  1.00  0.00     0.099 C 
BRANCH  60  61
ATOM     61  S   UNL     1       0.842  -5.550 -20.292  1.00  0.00    -0.124 SA
BRANCH  61  62
ATOM     62  C   UNL     1       1.219  -5.954 -21.126  1.00  0.00     0.007 A 
ATOM     63  C   UNL     1       2.150  -6.319 -21.128  1.00  0.00     0.015 A 
ATOM     64  C   UNL     1       0.664  -5.993 -21.957  1.00  0.00     0.015 A 
ATOM     65  C   UNL     1       2.527  -6.723 -21.961  1.00  0.00     0.001 A 
ATOM     66  C   UNL     1       1.041  -6.397 -22.791  1.00  0.00     0.001 A 
ATOM     67  C   UNL     1       1.972  -6.762 -22.793  1.00  0.00     0.000 A 
ENDBRANCH  61  62
ENDBRANCH  60  61
ENDBRANCH  51  60
ENDBRANCH  49  51
ENDBRANCH  41  49
ENDBRANCH  33  36
ENDBRANCH   2  33
TORSDOF 17
ENDMDL
MODEL 5
REMARK VINA RESULT:    -9.011      5.393      7.125
REMARK INTER + INTRA:          15.440
REMARK INTER:                 -17.676
REMARK INTRA:                  33.116
REMARK UNBOUND:                33.405
REMARK SMILES CC1(C)CCC(c2ccc(Cl)cc2)=C(CN2CCN(c3ccc(C(=O)NS(=O)(=O)c4ccc(N[C@H](CCN5CCOCC5)CSc5ccccc5)c(S(=O)(=O)C(F)(F)F)c4)cc3)CC2)C1
REMARK SMILES IDX 25 1 26 2 24 3 23 5 20 6 21 7 62 8 22 9 61 10 19 11 16 12
REMARK SMILES IDX 17 13 64 14 18 15 63 16 15 17 14 18 6 19 5 20 65 21 4 22
REMARK SMILES IDX 2 23 1 24 3 25 7 26 10 27 9 28 12 29 8 30 13 31 11 32 27 33
REMARK SMILES IDX 28 34 29 35 30 36 60 37 31 38 52 39 32 40 33 41 53 42 54 43
REMARK SMILES IDX 55 44 56 45 57 46 58 47 59 48 34 49 35 51 36 52 37 53 38 54
REMARK SMILES IDX 39 55 43 56 40 57 42 58 41 59 44 60 45 61 46 62 47 63 51 64
REMARK SMILES IDX 48 65 50 66 49 67
REMARK H PARENT 26 4 34 50
ROOT
ATOM      1  O   UNL     1      -5.790  -2.838 -19.375  1.00  0.00    -0.268 OA
ATOM      2  N   UNL     1      -5.133  -2.840 -20.977  1.00  0.00    -0.245 N 
ATOM      3  C   UNL     1      -5.890  -2.652 -20.352  1.00  0.00     0.264 C 
ATOM      4  H   UNL     1      -5.195  -2.724 -21.583  1.00  0.00     0.183 HD
ENDROOT
BRANCH   3   5
ATOM      5  C   UNL     1      -6.748  -2.278 -20.704  1.00  0.00     0.040 A 
ATOM      6  C   UNL     1      -8.464  -1.529 -21.408  1.00  0.00     0.037 A 
ATOM      7  C   UNL     1      -8.479  -2.296 -20.766  1.00  0.00     0.027 A 
ATOM      8  C   UNL     1      -7.591  -1.137 -21.698  1.00  0.00     0.027 A 
ATOM      9  C   UNL     1      -7.621  -2.670 -20.414  1.00  0.00     0.016 A 
ATOM     10  C   UNL     1      -6.733  -1.511 -21.346  1.00  0.00     0.016 A 
BRANCH   6  11
ATOM     11  N   UNL     1      -9.322  -1.155 -21.760  1.00  0.00    -0.369 N 
ATOM     12  N   UNL     1     -11.037  -0.406 -22.464  1.00  0.00    -0.296 NA
ATOM     13  C   UNL     1     -10.742  -0.190 -21.533  1.00  0.00     0.106 C 
ATOM     14  C   UNL     1     -10.475  -0.997 -23.042  1.00  0.00     0.106 C 
ATOM     15  C   UNL     1      -9.884  -0.564 -21.181  1.00  0.00     0.132 C 
ATOM     16  C   UNL     1      -9.617  -1.371 -22.690  1.00  0.00     0.132 C 
BRANCH  12  17
ATOM     17  C   UNL     1     -11.895  -0.032 -22.816  1.00  0.00     0.116 C 
BRANCH  17  18
ATOM     18  C   UNL     1     -11.971   0.946 -23.012  1.00  0.00    -0.052 C 
ATOM     19  C   UNL     1     -12.846   1.414 -22.887  1.00  0.00    -0.040 C 
ATOM     20  C   UNL     1     -12.921   2.392 -23.084  1.00  0.00     0.037 C 
ATOM     21  C   UNL     1     -11.172   1.454 -23.333  1.00  0.00     0.039 C 
ATOM     22  C   UNL     1     -12.123   2.901 -23.405  1.00  0.00     0.011 C 
ATOM     23  C   UNL     1     -11.248   2.432 -23.529  1.00  0.00    -0.031 C 
ATOM     24  C   UNL     1     -10.831   3.290 -23.828  1.00  0.00     0.011 C 
ATOM     25  C   UNL     1     -10.282   2.455 -23.787  1.00  0.00     0.011 C 
BRANCH  19  26
ATOM     26  C   UNL     1     -13.644   0.906 -22.566  1.00  0.00    -0.022 A 
ATOM     27  C   UNL     1     -15.242  -0.113 -21.924  1.00  0.00     0.041 A 
ATOM     28  C   UNL     1     -14.717   0.450 -21.285  1.00  0.00     0.021 A 
ATOM     29  C   UNL     1     -14.968  -0.166 -22.884  1.00  0.00     0.021 A 
ATOM     30  C   UNL     1     -13.918   0.959 -21.606  1.00  0.00     0.010 A 
ATOM     31  C   UNL     1     -14.169   0.343 -23.205  1.00  0.00     0.010 A 
ATOM     32  Cl  UNL     1     -16.041  -0.622 -21.603  1.00  0.00    -0.084 Cl
ENDBRANCH  19  26
ENDBRANCH  17  18
ENDBRANCH  12  17
ENDBRANCH   6  11
ENDBRANCH   3   5
BRANCH   2  33
ATOM     33  S   UNL     1      -4.275  -3.214 -20.625  1.00  0.00     0.264 S 
ATOM     34  O   UNL     1      -4.622  -4.142 -20.765  1.00  0.00    -0.201 OA
ATOM     35  O   UNL     1      -3.928  -2.287 -20.485  1.00  0.00    -0.201 OA
BRANCH  33  36
ATOM     36  C   UNL     1      -3.417  -3.589 -20.273  1.00  0.00     0.089 A 
ATOM     37  C   UNL     1      -2.805  -4.093 -20.882  1.00  0.00     0.045 A 
ATOM     38  C   UNL     1      -3.171  -3.458 -19.313  1.00  0.00     0.024 A 
ATOM     39  C   UNL     1      -1.947  -4.468 -20.530  1.00  0.00     0.101 A 
ATOM     40  C   UNL     1      -2.313  -3.832 -18.961  1.00  0.00     0.028 A 
ATOM     41  C   UNL     1      -1.701  -4.337 -19.569  1.00  0.00     0.054 A 
BRANCH  39  42
ATOM     42  S   UNL     1      -1.335  -4.972 -21.138  1.00  0.00     0.278 S 
ATOM     43  O   UNL     1      -1.817  -5.821 -20.920  1.00  0.00    -0.214 OA
ATOM     44  O   UNL     1      -0.852  -4.124 -21.356  1.00  0.00    -0.214 OA
BRANCH  42  45
ATOM     45  C   UNL     1      -0.722  -5.477 -21.747  1.00  0.00     0.501 C 
ATOM     46  F   UNL     1      -0.110  -5.982 -22.355  1.00  0.00    -0.156 F 
ATOM     47  F   UNL     1      -0.224  -4.633 -21.946  1.00  0.00    -0.156 F 
ATOM     48  F   UNL     1      -1.220  -6.321 -21.548  1.00  0.00    -0.156 F 
ENDBRANCH  42  45
ENDBRANCH  39  42
BRANCH  41  49
ATOM     49  N   UNL     1      -0.843  -4.711 -19.217  1.00  0.00    -0.380 N 
ATOM     50  H   UNL     1      -0.430  -4.958 -19.608  1.00  0.00     0.160 HD
BRANCH  49  51
ATOM     51  C   UNL     1      -0.653  -4.687 -18.236  1.00  0.00     0.090 C 
BRANCH  51  52
ATOM     52  C   UNL     1      -0.110  -3.941 -17.850  1.00  0.00     0.041 C 
BRANCH  52  53
ATOM     53  C   UNL     1       0.800  -3.744 -18.215  1.00  0.00     0.087 C 
BRANCH  53  54
ATOM     54  N   UNL     1       1.368  -3.040 -17.788  1.00  0.00    -0.299 NA
ATOM     55  C   UNL     1       2.192  -3.300 -17.285  1.00  0.00     0.113 C 
ATOM     56  C   UNL     1       1.111  -2.077 -17.865  1.00  0.00     0.113 C 
ATOM     57  C   UNL     1       2.760  -2.596 -16.859  1.00  0.00     0.175 C 
ATOM     58  C   UNL     1       1.679  -1.373 -17.438  1.00  0.00     0.175 C 
ATOM     59  O   UNL     1       2.504  -1.633 -16.935  1.00  0.00    -0.379 OA
ENDBRANCH  53  54
ENDBRANCH  52  53
ENDBRANCH  51  52
BRANCH  51  60
ATOM     60  C   UNL     1      -1.005  -5.410 -17.641  1.00  0.00     0.099 C 
BRANCH  60  61
ATOM     61  S   UNL     1      -0.445  -6.216 -17.448  1.00  0.00    -0.124 SA
BRANCH  61  62
ATOM     62  C   UNL     1      -0.778  -6.916 -16.817  1.00  0.00     0.007 A 
ATOM     63  C   UNL     1      -0.311  -7.069 -15.946  1.00  0.00     0.015 A 
ATOM     64  C   UNL     1      -1.579  -7.465 -17.057  1.00  0.00     0.015 A 
ATOM     65  C   UNL     1      -0.644  -7.770 -15.316  1.00  0.00     0.001 A 
ATOM     66  C   UNL     1      -1.913  -8.166 -16.426  1.00  0.00     0.001 A 
ATOM     67  C   UNL     1      -1.445  -8.318 -15.556  1.00  0.00     0.000 A 
ENDBRANCH  61  62
ENDBRANCH  60  61
ENDBRANCH  51  60
ENDBRANCH  49  51
ENDBRANCH  41  49
ENDBRANCH  33  36
ENDBRANCH   2  33
TORSDOF 17
ENDMDL
